19
Coordinates from ORCA-job glutamic
  C   1.02735244284472      0.04181292011836      0.05280703896464
  C   0.46512844889457     -0.73539372310965      1.22693061428792
  C   -1.04782136619898     -0.74670870631604      1.25130034619238
  O   -1.73978686525917     -0.31879916627922      0.37287438880115
  O   -1.59671921027084     -1.30262383096899      2.34527640882155
  C   2.56026209945016      0.09929355313280      0.07225468047233
  C   3.09110027346267      0.86410414885461     -1.14824162194289
  O   3.75502702514761      1.85638612907849     -1.05613317910316
  O   2.77212243804234      0.35813985175782     -2.34836442269331
  N   3.03467063352386      0.65066120489164      1.31724801493911
  H   0.62332665761610      1.06789512846905      0.06981663271184
  H   0.65053206460998     -0.39904825201330     -0.88450846048031
  H   0.86385613332977     -0.31410243649400      2.16521003410192
  H   0.81131646850584     -1.78542330639944      1.20261771214346
  H   -0.90870041583684     -1.57265181447709      2.96517730950153
  H   2.94209822630986     -0.93740300817425     -0.01235748398164
  H   2.22536013526484     -0.43072360067099     -2.24775310171271
  H   2.88689350124596      1.66087960484876      1.29880434611293
  H   4.04525130931754      0.54223530375141      1.37741074286324
