23
Coordinates from ORCA-job phenyl
  C   -1.51672241681891     -0.00352901715852      0.23828482809102
  C   -0.81414989597402      0.90472400193979     -0.55077579278036
  C   0.58047373116946      0.87466844643275     -0.58057557818970
  C   1.29877634242667     -0.06070913413059      0.17728377762393
  C   0.57565024985222     -0.96821885239732      0.96775799666132
  C   -0.81671091354697     -0.94132713810716      0.99841450148768
  C   2.80556562054153     -0.10135349149752      0.15091690187327
  C   3.43243789299912     -1.36016895138650     -0.48128422206429
  C   3.20454667712509     -1.43466733168234     -1.99983493376472
  O   4.10798232850937     -1.54925111948111     -2.78051607285578
  O   1.93535550878835     -1.39552953068274     -2.42074155453931
  N   4.82720128983666     -1.43767821021092     -0.12726434407813
  H   -2.60932418559950      0.01877636873736      0.26264234425414
  H   -1.35305173200656      1.64372665748490     -1.14878427568453
  H   1.12471525832559      1.58952838227537     -1.20442288924856
  H   1.11455182765732     -1.70020315636028      1.57732086663589
  H   -1.35955257515137     -1.65456295756552      1.62378063450405
  H   3.19786495033337     -0.06364484453604      1.17901404051097
  H   3.19348882867098      0.79186100442797     -0.36625576692934
  H   2.91803908573712     -2.24012592845026     -0.04917241504865
  H   1.33149638012461     -1.22255285593025     -1.68161460662778
  H   5.31999006947948     -0.66227766466650     -0.57151056756321
  H   5.23200567752039     -2.26673467705456     -0.55955287226789
