10
Coordinates from ORCA-job glycine
  C   0.95174442710998     -0.04464287942677     -0.08261698820677
  C   0.52220909996595     -0.33800844147287     -1.50961233690765
  O   1.27757326761352     -0.72000503250717     -2.35630001315476
  O   -0.78586448724932     -0.19370540132008     -1.76320815504535
  N   2.37386943686331      0.12932490507872     -0.01000751720118
  H   0.54530653226957     -0.88867536841177      0.51883790089782
  H   0.41116169134869      0.85730122213280      0.26925524427439
  H   -1.23979574304678      0.15882413383715     -0.98796451246647
  H   2.80085505099057     -0.38745210316450     -0.77871296307989
  H   2.75241072413450     -0.22711103474551      0.86130934088984
