20
Coordinates from ORCA-job methionine
  C   1.03469662587593     -0.00312794579982      0.03539885950219
  S   2.82419433113359      0.19983800387656     -0.02565189356919
  C   3.27221766489749     -0.54753391796261      1.56509690265229
  C   4.78679826002124     -0.60421779271768      1.69011227317182
  C   5.32265925558608     -1.07065996155918      3.05239819970404
  C   4.86108045365969     -2.50572751691943      3.33584730549548
  O   5.52672121976594     -3.46539761907598      3.07070074636185
  O   3.63813392129062     -2.64712454133056      3.87717244032499
  N   6.75917568232512     -0.94272316832454      3.06508292768133
  H   0.63381212464981      0.41387581071752     -0.89897232386394
  H   0.59066475444391      0.54615447587178      0.87989364459413
  H   0.74959756977924     -1.06473620169626      0.09448485301109
  H   2.82559016729068     -1.55418696646346      1.61899335838270
  H   2.83876330586780      0.06105753939412      2.38050813020660
  H   5.22038425240941      0.39262544390453      1.51327153549391
  H   5.19449915216802     -1.26893488025466      0.90956502095617
  H   4.90676831937547     -0.40323743843420      3.83212693436997
  H   3.25729218843797     -1.78015760143801      4.06337952889179
  H   7.14707610255655     -1.66521197779810      2.45668537345174
  H   7.11870464846546     -1.15929374399002      3.99296618318103
