13
Coordinates from ORCA-job alanine
  C   1.07798066304118      0.01802875729657      0.01099101760233
  C   2.60546047299671      0.05113703548449     -0.01700336337162
  C   3.13050326788951     -0.22342986967817     -1.43258022016874
  O   3.77881943432890      0.56469855738492     -2.05916115831898
  O   2.81886313294605     -1.42292901787925     -1.95331081457873
  N   3.08795285001762      1.29294295689007      0.52950441052758
  H   0.66165687164454     -0.94811628371375     -0.31390402785846
  H   0.66272928363200      0.79626627643079     -0.64859906758494
  H   0.73002575246814      0.21620249784860      1.03377778365641
  H   2.97857391713345     -0.77367975392975      0.62132389909407
  H   2.30295600191793     -1.93562232295949     -1.31936028306517
  H   2.82819806839847      2.04966910543154     -0.10384297179752
  H   4.10653028358550      1.29348206139342      0.52179479586379
