19
Coordinates from ORCA-job valine
  C   0.92172263484781     -0.11184278150474      0.08078276455141
  C   2.43729949197280      0.03562959913235     -0.00275083096284
  C   2.94605537266919     -0.28983599011418     -1.40167044805011
  C   2.93835179790346      1.43257634590527      0.43539875776064
  C   2.40486572316092      1.77532485047367      1.83139629024564
  O   3.00499174521239      1.50362285843101      2.83319837971820
  O   1.21226071945020      2.38966453602844      1.89457489828050
  N   4.38222090590347      1.48332611694098      0.40152120350177
  H   0.61697132788834     -1.11191689487421     -0.26260102822502
  H   0.41296433843694      0.61587914911427     -0.57645730745841
  H   0.53146644555404      0.01423598509230      1.10144544953266
  H   2.88925597168817     -0.67954483364399      0.70965951713776
  H   2.47017590665801      0.36425436492928     -2.15165853521373
  H   2.71011888402029     -1.33077891248612     -1.67099919946288
  H   4.03214305193723     -0.14065446815859     -1.46230743519940
  H   2.54522176775802      2.17110134850354     -0.29100723880218
  H   0.87135313989488      2.53469365534960      1.00359045315234
  H   4.72965404613579      0.99146807370572      1.22657791316897
  H   4.70104672890807      2.44411699717541      0.50780639632470
