26
Coordinates from ORCA-job arginine
  C   1.16614409500317      0.21878129320098      0.09037265927190
  C   0.55508107679439     -0.08873510522143     -1.26770829314103
  C   -0.97016675737225     -0.26866196066596     -1.30581909691607
  C   -1.69167008132410      1.04506190795047     -0.97913298938195
  O   -2.22172864187852      1.72162677452784     -1.81498114364464
  O   -1.70157846090911      1.42136536085967      0.31004775667179
  N   -1.36237322577656     -0.80173750266895     -2.58886021828552
  C   2.68908335227267      0.20068890039976      0.08292413531671
  N   3.20339656508817      0.50350841859259      1.38567372227465
  C   4.45006964111810      0.34106156665283      1.61826058982582
  N   5.41867102758904      0.00199713707243      0.69527410486948
  N   4.94383156762417      0.50623628364548      2.90251555728476
  H   0.82990280164221     -0.52116764804049      0.84075583114599
  H   0.85487155588956      1.20976404879909      0.45987040834065
  H   0.97018379966082     -1.02972261827411     -1.66398950695744
  H   0.83085569755168      0.69735621387275     -1.99377550320452
  H   -1.24090196094986     -1.00609204039098     -0.52570267665680
  H   -1.20990510986781      0.78666630393351      0.84663964420086
  H   -1.25243511326141     -0.06231210983128     -3.28431175991047
  H   -2.36169481533911     -0.99870638338452     -2.58469040113183
  H   3.04072257241839      0.93368096686651     -0.67544079579997
  H   3.02443650594354     -0.79600905958882     -0.28785131866183
  H   5.08579017447924     -0.31910371927792     -0.20374806035470
  H   6.21249715716503     -0.51863391833502      1.04721669640169
  H   4.23645107264472      0.89334188538563      3.51725444567988
  H   5.82301550379383      1.00960500391993      2.95820621276259
