14
Coordinates from ORCA-job serine
  C   1.19087352144226     -0.21144116283619     -0.05142574456577
  C   0.54041599266105     -1.24568195802584     -0.96603732208866
  C   0.97475657741301     -2.68645328833924     -0.63657381347950
  O   0.18536297664841     -3.58996355856782     -0.58569420425037
  O   2.27732367270865     -2.86957777214842     -0.43784989708049
  N   -0.88862847674311     -1.06800918011664     -0.96731585692483
  O   2.59288764934823     -0.26290098222603     -0.24692082390917
  H   0.92462286008236     -0.41932497682027      1.00317192004549
  H   0.78110610443458      0.77713858026124     -0.31734535191184
  H   0.92708169413477     -1.03368440245258     -1.98028417497783
  H   2.71935912161847     -1.99370817852201     -0.42372486789486
  H   -1.27230962944322     -1.48429729937639     -0.11838416998934
  H   -1.28990709700445     -1.62715527865402     -1.71727303128671
  H   3.03662503269900      0.26811945782421      0.42204733831387
